<?xml version='1.0' encoding='utf-8'?>
<routes xmlns:xsi="http://www.w3.org/2001/XMLSchema-instance" xsi:noNamespaceSchemaLocation="http://sumo.dlr.de/xsd/routes_file.xsd">
    <person id="0" depart="140">
        <ride from="-53658195#0" to="53561461#1" lines="taxi" />
    </person>
    <person id="1" depart="540">
        <ride from="-210983363" to="371128537" lines="taxi" />
    </person>
    <person id="2" depart="573">
        <ride from="1336792636" to="884011753#4" lines="taxi" />
    </person>
    <person id="3" depart="644">
        <ride from="25720894" to="53655502#0" lines="taxi" />
    </person>
    <person id="4" depart="693">
        <ride from="-371139409" to="53655526#3" lines="taxi" />
    </person>
    <person id="5" depart="990">
        <ride from="-53655496#1" to="53561460#3" lines="taxi" />
    </person>
    <person id="6" depart="1018">
        <ride from="-53655513#3" to="344408617#7" lines="taxi" />
    </person>
    <person id="7" depart="1372">
        <ride from="53655498#2" to="53561378#2" lines="taxi" />
    </person>
    <person id="8" depart="1724">
        <ride from="53561390#0" to="-210983382#0" lines="taxi" />
    </person>
    <person id="9" depart="1878">
        <ride from="221195044#3" to="-1364062319#0" lines="taxi" />
    </person>
    <person id="10" depart="1964">
        <ride from="210983260" to="-1078727591#1" lines="taxi" />
    </person>
    <person id="11" depart="2003">
        <ride from="-53655497#1" to="53561461#2" lines="taxi" />
    </person>
    <person id="12" depart="2089">
        <ride from="-25720894" to="210983397" lines="taxi" />
    </person>
    <person id="13" depart="2182">
        <ride from="-210983278#2" to="-344408617#3" lines="taxi" />
    </person>
    <person id="14" depart="2368">
        <ride from="53655515#1" to="1116728180" lines="taxi" />
    </person>
    <person id="15" depart="3358">
        <ride from="53658195#0" to="-884011753#5" lines="taxi" />
    </person>
    <person id="16" depart="3529">
        <ride from="53655502#1" to="344412437#2" lines="taxi" />
    </person>
    <person id="17" depart="3697">
        <ride from="-53655496#2" to="371139410#1" lines="taxi" />
    </person>
    <person id="18" depart="4295">
        <ride from="221195033" to="-53561375#3" lines="taxi" />
    </person>
    <person id="19" depart="4525">
        <ride from="-53561361#1" to="-210994252#5" lines="taxi" />
    </person>
    <person id="20" depart="4557">
        <ride from="53561367#0" to="210983352#0" lines="taxi" />
    </person>
    <person id="21" depart="4723">
        <ride from="1059449380" to="735174909" lines="taxi" />
    </person>
    <person id="22" depart="4737">
        <ride from="53655510#0" to="53561460#0" lines="taxi" />
    </person>
    <person id="23" depart="4762">
        <ride from="53561371#0" to="210983278#2" lines="taxi" />
    </person>
    <person id="24" depart="4821">
        <ride from="-53655496#1" to="-884011754#0" lines="taxi" />
    </person>
    <person id="25" depart="4923">
        <ride from="776321009#1" to="53658195#2" lines="taxi" />
    </person>
    <person id="26" depart="4947">
        <ride from="210983382#1" to="-53561355#7" lines="taxi" />
    </person>
    <person id="27" depart="5028">
        <ride from="52218209#0" to="165271536#0" lines="taxi" />
    </person>
    <person id="28" depart="5327">
        <ride from="-344412437#2" to="-103755128" lines="taxi" />
    </person>
    <person id="29" depart="5675">
        <ride from="53655497#5" to="53561461#0" lines="taxi" />
    </person>
    <person id="30" depart="5721">
        <ride from="-1264386180#3" to="53655514#0" lines="taxi" />
    </person>
    <person id="31" depart="5767">
        <ride from="-371130049#2" to="-53655515#0" lines="taxi" />
    </person>
    <person id="32" depart="5783">
        <ride from="210983278#0" to="25717814#0" lines="taxi" />
    </person>
    <person id="33" depart="5941">
        <ride from="53561375#4" to="-603234074#0" lines="taxi" />
    </person>
    <person id="34" depart="6004">
        <ride from="103755419#2" to="53561457#1" lines="taxi" />
    </person>
    <person id="35" depart="6251">
        <ride from="-53561357#2" to="211071512#1" lines="taxi" />
    </person>
    <person id="36" depart="6797">
        <ride from="1116432385#0" to="371128535#1" lines="taxi" />
    </person>
    <person id="37" depart="6814">
        <ride from="210983260" to="-53561373#1" lines="taxi" />
    </person>
    <person id="38" depart="7270">
        <ride from="776542380#2" to="102756669" lines="taxi" />
    </person>
    <person id="39" depart="7349">
        <ride from="53655514#0" to="495024959#1" lines="taxi" />
    </person>
    <person id="40" depart="7880">
        <ride from="765885882#1" to="-210983382#1" lines="taxi" />
    </person>
    <person id="41" depart="7996">
        <ride from="-53655504#1" to="-53561361#2" lines="taxi" />
    </person>
    <person id="42" depart="8176">
        <ride from="210983278#0" to="-53561357#5" lines="taxi" />
    </person>
    <person id="43" depart="8196">
        <ride from="53561371#2" to="541594063#5" lines="taxi" />
    </person>
    <person id="44" depart="8243">
        <ride from="53655506#3" to="1364062319#2" lines="taxi" />
    </person>
    <person id="45" depart="8546">
        <ride from="884011754#2" to="-210994252#5" lines="taxi" />
    </person>
    <person id="46" depart="8627">
        <ride from="1264386180#2" to="776816215#1" lines="taxi" />
    </person>
    <person id="47" depart="9114">
        <ride from="-165271537#1" to="-344408617#6" lines="taxi" />
    </person>
    <person id="48" depart="9119">
        <ride from="-53658195#1" to="-53561368#2" lines="taxi" />
    </person>
    <person id="49" depart="9911">
        <ride from="221195029#3" to="53561448#2" lines="taxi" />
    </person>
    <person id="50" depart="10916">
        <ride from="1234512582#1" to="53561459" lines="taxi" />
    </person>
    <person id="51" depart="11006">
        <ride from="-262321209#1" to="-53655502#1" lines="taxi" />
    </person>
    <person id="52" depart="11429">
        <ride from="-1218672122#5" to="884011753#6" lines="taxi" />
    </person>
    <person id="53" depart="11583">
        <ride from="221195025" to="53561355#1" lines="taxi" />
    </person>
    <person id="54" depart="11771">
        <ride from="210983384" to="53561375#2" lines="taxi" />
    </person>
    <person id="55" depart="11924">
        <ride from="-53655514#1" to="-53561451" lines="taxi" />
    </person>
    <person id="56" depart="12030">
        <ride from="53655506#2" to="884011753#3" lines="taxi" />
    </person>
    <person id="57" depart="12126">
        <ride from="-53655497#2" to="-262321209#5" lines="taxi" />
    </person>
    <person id="58" depart="12471">
        <ride from="221195025" to="53655564#1" lines="taxi" />
    </person>
    <person id="59" depart="12627">
        <ride from="-53655510#1" to="-53561373#0" lines="taxi" />
    </person>
    <person id="60" depart="12728">
        <ride from="53655509#0" to="-371139410#0" lines="taxi" />
    </person>
    <person id="61" depart="13040">
        <ride from="-53655515#1" to="53561473#7" lines="taxi" />
    </person>
    <person id="62" depart="13157">
        <ride from="103755419#0" to="-371139410#11" lines="taxi" />
    </person>
    <person id="63" depart="13360">
        <ride from="884011753#8" to="53655514#0" lines="taxi" />
    </person>
    <person id="64" depart="13553">
        <ride from="1364062319#2" to="53655527#1" lines="taxi" />
    </person>
    <person id="65" depart="13731">
        <ride from="53655510#1" to="-884011754#0" lines="taxi" />
    </person>
    <person id="66" depart="13812">
        <ride from="1158587920#1" to="211071545#2" lines="taxi" />
    </person>
    <person id="67" depart="13824">
        <ride from="1364062320" to="-165271538#9" lines="taxi" />
    </person>
    <person id="68" depart="13998">
        <ride from="210983358" to="-1277836489#0" lines="taxi" />
    </person>
    <person id="69" depart="14038">
        <ride from="210983278#2" to="-1364062320" lines="taxi" />
    </person>
    <person id="70" depart="14157">
        <ride from="-884011753#4" to="-210983382#1" lines="taxi" />
    </person>
    <person id="71" depart="14617">
        <ride from="102755441#0" to="-211071567#0" lines="taxi" />
    </person>
    <person id="72" depart="14788">
        <ride from="-53561368#0" to="53655508#2" lines="taxi" />
    </person>
    <person id="73" depart="15080">
        <ride from="-53561372#2" to="1213201223#6" lines="taxi" />
    </person>
    <person id="74" depart="15219">
        <ride from="210983308#1" to="104951462#2" lines="taxi" />
    </person>
    <person id="75" depart="15749">
        <ride from="-53655513#3" to="-344412437#0" lines="taxi" />
    </person>
    <person id="76" depart="15762">
        <ride from="-53561369#5" to="53655508#2" lines="taxi" />
    </person>
    <person id="77" depart="15908">
        <ride from="-53561367#1" to="-210983278#2" lines="taxi" />
    </person>
    <person id="78" depart="16762">
        <ride from="53561350#3" to="165271536#2" lines="taxi" />
    </person>
    <person id="79" depart="17109">
        <ride from="-53655515#1" to="-53561461#2" lines="taxi" />
    </person>
    <person id="80" depart="17406">
        <ride from="53655492#11" to="-1364062319#2" lines="taxi" />
    </person>
    <person id="81" depart="17434">
        <ride from="210994244" to="371139409" lines="taxi" />
    </person>
    <person id="82" depart="17484">
        <ride from="813269879" to="495024963#9" lines="taxi" />
    </person>
    <person id="83" depart="17915">
        <ride from="165271538#8" to="371139410#1" lines="taxi" />
    </person>
    <person id="84" depart="18206">
        <ride from="-53561473#1" to="-165271538#4" lines="taxi" />
    </person>
    <person id="85" depart="18306">
        <ride from="776323738" to="541594063#2" lines="taxi" />
    </person>
    <person id="86" depart="18613">
        <ride from="210983278#3" to="884054432#5" lines="taxi" />
    </person>
    <person id="87" depart="18930">
        <ride from="103755419#2" to="776347522#0" lines="taxi" />
    </person>
    <person id="88" depart="19271">
        <ride from="53561473#1" to="210994252#8" lines="taxi" />
    </person>
    <person id="89" depart="19393">
        <ride from="221195044#3" to="371139406-AddedOffRampEdge" lines="taxi" />
    </person>
    <person id="90" depart="19754">
        <ride from="210983268#0" to="495024963#8" lines="taxi" />
    </person>
    <person id="91" depart="20232">
        <ride from="-1264386180#0" to="1116432385#6" lines="taxi" />
    </person>
    <person id="92" depart="20367">
        <ride from="-165271538#6" to="-53561370#2" lines="taxi" />
    </person>
    <person id="93" depart="20676">
        <ride from="765885882#0" to="-53658196#2" lines="taxi" />
    </person>
    <person id="94" depart="21019">
        <ride from="1364062319#5" to="-53655505#1" lines="taxi" />
    </person>
    <person id="95" depart="21374">
        <ride from="-53561362#5" to="221195025" lines="taxi" />
    </person>
    <person id="96" depart="21516">
        <ride from="53655513#2" to="-1364062319#3" lines="taxi" />
    </person>
    <person id="97" depart="21547">
        <ride from="53655504#1" to="53561473#8" lines="taxi" />
    </person>
    <person id="98" depart="21604">
        <ride from="53655492#14" to="-53561416#1" lines="taxi" />
    </person>
    <person id="99" depart="21606">
        <ride from="-210983363" to="-102566012#12" lines="taxi" />
    </person>
    <person id="100" depart="21618">
        <ride from="-53561368#2" to="210983278#0" lines="taxi" />
    </person>
    <person id="101" depart="21638">
        <ride from="1264386180#1" to="1163556836#2" lines="taxi" />
    </person>
    <person id="102" depart="21660">
        <ride from="-53561439#3" to="53655507#0" lines="taxi" />
    </person>
    <person id="103" depart="21664">
        <ride from="53561367#2" to="53655509#1" lines="taxi" />
    </person>
    <person id="104" depart="21684">
        <ride from="-53655502#1" to="-53561461#2" lines="taxi" />
    </person>
    <person id="105" depart="21704">
        <ride from="-53658197" to="-53561373#1" lines="taxi" />
    </person>
    <person id="106" depart="21724">
        <ride from="102756669" to="53561473#5" lines="taxi" />
    </person>
    <person id="107" depart="21809">
        <ride from="53561407" to="541594063#0" lines="taxi" />
    </person>
    <person id="108" depart="21810">
        <ride from="-1364062319#7" to="103755425#3" lines="taxi" />
    </person>
    <person id="109" depart="21820">
        <ride from="53561366#2" to="-165271538#2" lines="taxi" />
    </person>
    <person id="110" depart="21856">
        <ride from="210983371" to="-53561439#1" lines="taxi" />
    </person>
    <person id="111" depart="21864">
        <ride from="210983308#3" to="-53561362#2" lines="taxi" />
    </person>
    <person id="112" depart="21868">
        <ride from="-165271538#8" to="-344408617#7" lines="taxi" />
    </person>
    <person id="113" depart="21877">
        <ride from="53655514#2" to="-371139407#1" lines="taxi" />
    </person>
    <person id="114" depart="21891">
        <ride from="165271538#10" to="665481893" lines="taxi" />
    </person>
    <person id="115" depart="21893">
        <ride from="-53561350#2" to="165271538#11" lines="taxi" />
    </person>
    <person id="116" depart="21913">
        <ride from="210983260" to="-371130049#0" lines="taxi" />
    </person>
    <person id="117" depart="22142">
        <ride from="53655554" to="53655522#3" lines="taxi" />
    </person>
    <person id="118" depart="22143">
        <ride from="221195038#3" to="53561455#0" lines="taxi" />
    </person>
    <person id="119" depart="22146">
        <ride from="210983352#0" to="888532971#1" lines="taxi" />
    </person>
    <person id="120" depart="22217">
        <ride from="-371139410#10" to="210983366" lines="taxi" />
    </person>
    <person id="121" depart="22226">
        <ride from="102678342#1" to="776816217" lines="taxi" />
    </person>
    <person id="122" depart="22233">
        <ride from="776834763#1" to="53561371#1" lines="taxi" />
    </person>
    <person id="123" depart="22294">
        <ride from="103755419#2" to="53561466" lines="taxi" />
    </person>
    <person id="124" depart="22347">
        <ride from="-344412438#0" to="-165271537#0" lines="taxi" />
    </person>
    <person id="125" depart="22356">
        <ride from="-53561371#2" to="210983305" lines="taxi" />
    </person>
    <person id="126" depart="22365">
        <ride from="-165271537#2" to="53561371#1" lines="taxi" />
    </person>
    <person id="127" depart="22367">
        <ride from="-53561351#8" to="210983382#1" lines="taxi" />
    </person>
    <person id="128" depart="22383">
        <ride from="-53561393#1" to="53655507#0" lines="taxi" />
    </person>
    <person id="129" depart="22387">
        <ride from="-53561355#2" to="1213201223#4" lines="taxi" />
    </person>
    <person id="130" depart="22391">
        <ride from="221195038#3" to="-344412438#1" lines="taxi" />
    </person>
    <person id="131" depart="22413">
        <ride from="-53561361#1" to="-210983278#1" lines="taxi" />
    </person>
    <person id="132" depart="22421">
        <ride from="-210983279" to="-104951462#1" lines="taxi" />
    </person>
    <person id="133" depart="22437">
        <ride from="280958022#4" to="53655514#2" lines="taxi" />
    </person>
    <person id="134" depart="22465">
        <ride from="495024957#0" to="-165271537#0" lines="taxi" />
    </person>
    <person id="135" depart="22485">
        <ride from="-53561355#0" to="53655526#3" lines="taxi" />
    </person>
    <person id="136" depart="22516">
        <ride from="53655505#2" to="53561395#2" lines="taxi" />
    </person>
    <person id="137" depart="22525">
        <ride from="884011758" to="53655528#0" lines="taxi" />
    </person>
    <person id="138" depart="22536">
        <ride from="53561362#5" to="-211071545#0" lines="taxi" />
    </person>
    <person id="139" depart="22597">
        <ride from="53655515#2" to="53561378#0" lines="taxi" />
    </person>
    <person id="140" depart="22647">
        <ride from="-53655513#2" to="274056657" lines="taxi" />
    </person>
    <person id="141" depart="22663">
        <ride from="1138569413#0" to="-53561459" lines="taxi" />
    </person>
    <person id="142" depart="22701">
        <ride from="53655509#0" to="884054432#3" lines="taxi" />
    </person>
    <person id="143" depart="22710">
        <ride from="221195025" to="53746020#1" lines="taxi" />
    </person>
    <person id="144" depart="22740">
        <ride from="14579459#0" to="1341231696#2" lines="taxi" />
    </person>
    <person id="145" depart="22751">
        <ride from="221195038#0" to="53561371#2" lines="taxi" />
    </person>
    <person id="146" depart="22756">
        <ride from="-371130049#1" to="165271537#2" lines="taxi" />
    </person>
    <person id="147" depart="22767">
        <ride from="-210983340" to="-53561373#0" lines="taxi" />
    </person>
    <person id="148" depart="22767">
        <ride from="221195021" to="1164077928" lines="taxi" />
    </person>
    <person id="149" depart="22771">
        <ride from="886367121#7" to="165271537#1" lines="taxi" />
    </person>
    <person id="150" depart="22805">
        <ride from="104951462#1" to="1116432385#4" lines="taxi" />
    </person>
    <person id="151" depart="22837">
        <ride from="221195038#3" to="884054432#8" lines="taxi" />
    </person>
    <person id="152" depart="22846">
        <ride from="165271537#2" to="53561431#0" lines="taxi" />
    </person>
    <person id="153" depart="22847">
        <ride from="53561473#1" to="53655523#0" lines="taxi" />
    </person>
    <person id="154" depart="22895">
        <ride from="1234512582#4" to="371128542#3" lines="taxi" />
    </person>
    <person id="155" depart="22907">
        <ride from="53655513#0" to="-53561355#2" lines="taxi" />
    </person>
    <person id="156" depart="22907">
        <ride from="-210983268#1" to="-53561369#5" lines="taxi" />
    </person>
    <person id="157" depart="22963">
        <ride from="-53655515#1" to="-53561456#4" lines="taxi" />
    </person>
    <person id="158" depart="22975">
        <ride from="103755414#1" to="-25718014#1" lines="taxi" />
    </person>
    <person id="159" depart="22976">
        <ride from="53561426#4" to="221195033" lines="taxi" />
    </person>
    <person id="160" depart="22978">
        <ride from="221195025" to="-1078727591#0" lines="taxi" />
    </person>
    <person id="161" depart="22987">
        <ride from="344412437#2" to="-211071567#0" lines="taxi" />
    </person>
    <person id="162" depart="23029">
        <ride from="-53655509#2" to="262321209#4" lines="taxi" />
    </person>
    <person id="163" depart="23050">
        <ride from="165271537#2" to="-371139407#2" lines="taxi" />
    </person>
    <person id="164" depart="23066">
        <ride from="1079659299#2" to="53561371#2" lines="taxi" />
    </person>
    <person id="165" depart="23094">
        <ride from="371139410#11" to="-53655527#2" lines="taxi" />
    </person>
    <person id="166" depart="23199">
        <ride from="53561436#2" to="210983283" lines="taxi" />
    </person>
    <person id="167" depart="23246">
        <ride from="884011753#6" to="165271537#2" lines="taxi" />
    </person>
    <person id="168" depart="23251">
        <ride from="103755414#1" to="53561363" lines="taxi" />
    </person>
    <person id="169" depart="23269">
        <ride from="-627950958#0" to="210983305" lines="taxi" />
    </person>
    <person id="170" depart="23272">
        <ride from="221195029#1" to="1364062319#6" lines="taxi" />
    </person>
    <person id="171" depart="23300">
        <ride from="-53655515#0" to="-53561473#0" lines="taxi" />
    </person>
    <person id="172" depart="23304">
        <ride from="210983397" to="-53561351#8" lines="taxi" />
    </person>
    <person id="173" depart="23382">
        <ride from="-210983384" to="-53561452" lines="taxi" />
    </person>
    <person id="174" depart="23396">
        <ride from="1079659298" to="53561360" lines="taxi" />
    </person>
    <person id="175" depart="23412">
        <ride from="53561473#3" to="-53655526#2" lines="taxi" />
    </person>
    <person id="176" depart="23433">
        <ride from="53655527#6" to="-25718014#1" lines="taxi" />
    </person>
    <person id="177" depart="23500">
        <ride from="-53655515#0" to="53561362#2" lines="taxi" />
    </person>
    <person id="178" depart="23529">
        <ride from="1352009118" to="53561370#0" lines="taxi" />
    </person>
    <person id="179" depart="23529">
        <ride from="221195044#1" to="53561375#6" lines="taxi" />
    </person>
    <person id="180" depart="23607">
        <ride from="-53561370#2" to="53655492#13" lines="taxi" />
    </person>
    <person id="181" depart="23654">
        <ride from="53655513#3" to="53561394#1" lines="taxi" />
    </person>
    <person id="182" depart="23656">
        <ride from="-53655515#0" to="-25718014#0" lines="taxi" />
    </person>
    <person id="183" depart="23686">
        <ride from="1234512582#2" to="53561367#0" lines="taxi" />
    </person>
    <person id="184" depart="23700">
        <ride from="-53561473#5" to="221195021" lines="taxi" />
    </person>
    <person id="185" depart="23751">
        <ride from="25718014#1" to="775140684" lines="taxi" />
    </person>
    <person id="186" depart="23753">
        <ride from="-53561363" to="-165271538#6" lines="taxi" />
    </person>
    <person id="187" depart="23772">
        <ride from="-1059449380" to="210983308#2" lines="taxi" />
    </person>
    <person id="188" depart="23799">
        <ride from="776321873" to="1079659298" lines="taxi" />
    </person>
    <person id="189" depart="23806">
        <ride from="53561369#2" to="53655505#1" lines="taxi" />
    </person>
    <person id="190" depart="23834">
        <ride from="-371139410#7" to="-53655506#2" lines="taxi" />
    </person>
    <person id="191" depart="23869">
        <ride from="165271537#1" to="53561375#3" lines="taxi" />
    </person>
    <person id="192" depart="23886">
        <ride from="-53561367#2" to="210983397" lines="taxi" />
    </person>
    <person id="193" depart="23887">
        <ride from="53658196#2" to="53561393#2" lines="taxi" />
    </person>
    <person id="194" depart="23902">
        <ride from="-890210889#1" to="-884011753#3" lines="taxi" />
    </person>
    <person id="195" depart="23908">
        <ride from="-53561369#2" to="-211071518#1" lines="taxi" />
    </person>
    <person id="196" depart="23908">
        <ride from="776324811" to="1116432385#7" lines="taxi" />
    </person>
    <person id="197" depart="23914">
        <ride from="53561448#9" to="210983363" lines="taxi" />
    </person>
    <person id="198" depart="23954">
        <ride from="890210889#0" to="-1277836489#4" lines="taxi" />
    </person>
    <person id="199" depart="23970">
        <ride from="53655503" to="-53561467" lines="taxi" />
    </person>
    <person id="200" depart="23978">
        <ride from="25718014#0" to="1116432385#3" lines="taxi" />
    </person>
    <person id="201" depart="23982">
        <ride from="-53655502#1" to="371139407#2" lines="taxi" />
    </person>
    <person id="202" depart="24002">
        <ride from="-53561373#0" to="541594063#0" lines="taxi" />
    </person>
    <person id="203" depart="24026">
        <ride from="53655504#0" to="-1364062319#1" lines="taxi" />
    </person>
    <person id="204" depart="24027">
        <ride from="165271538#10" to="-53561393#0" lines="taxi" />
    </person>
    <person id="205" depart="24058">
        <ride from="-1364062319#7" to="53655507#0" lines="taxi" />
    </person>
    <person id="206" depart="24073">
        <ride from="221195044#2" to="-154984257#2" lines="taxi" />
    </person>
    <person id="207" depart="24085">
        <ride from="-53561366#0" to="-165271538#9" lines="taxi" />
    </person>
    <person id="208" depart="24098">
        <ride from="371139410#6" to="210994252#3" lines="taxi" />
    </person>
    <person id="209" depart="24140">
        <ride from="-53655514#2" to="-262321209#3" lines="taxi" />
    </person>
    <person id="210" depart="24170">
        <ride from="103755421" to="-53561366#5" lines="taxi" />
    </person>
    <person id="211" depart="24178">
        <ride from="-53561448#3" to="53655515#2" lines="taxi" />
    </person>
    <person id="212" depart="24234">
        <ride from="165271538#10" to="53561366#1" lines="taxi" />
    </person>
    <person id="213" depart="24235">
        <ride from="-53561375#4" to="-210983397" lines="taxi" />
    </person>
    <person id="214" depart="24244">
        <ride from="-627950960" to="165271538#6" lines="taxi" />
    </person>
    <person id="215" depart="24259">
        <ride from="53561367#1" to="-53655509#1" lines="taxi" />
    </person>
    <person id="216" depart="24270">
        <ride from="221195033" to="53561445" lines="taxi" />
    </person>
    <person id="217" depart="24285">
        <ride from="25720681" to="53655497#0" lines="taxi" />
    </person>
    <person id="218" depart="24291">
        <ride from="53561362#10" to="210983278#0" lines="taxi" />
    </person>
    <person id="219" depart="24295">
        <ride from="262321209#1" to="221195044#4" lines="taxi" />
    </person>
    <person id="220" depart="24298">
        <ride from="221195032" to="-371128537" lines="taxi" />
    </person>
    <person id="221" depart="24325">
        <ride from="1341231688#0" to="1364062319#0" lines="taxi" />
    </person>
    <person id="222" depart="24351">
        <ride from="344412437#0" to="1116432385#7" lines="taxi" />
    </person>
    <person id="223" depart="24399">
        <ride from="53561369#6" to="-165271538#4" lines="taxi" />
    </person>
    <person id="224" depart="24429">
        <ride from="776834763#1" to="53561394#2" lines="taxi" />
    </person>
    <person id="225" depart="24445">
        <ride from="57354813" to="-53561371#0" lines="taxi" />
    </person>
    <person id="226" depart="24451">
        <ride from="1336792636" to="53561372#0" lines="taxi" />
    </person>
    <person id="227" depart="24463">
        <ride from="221195044#1" to="53561472#6" lines="taxi" />
    </person>
    <person id="228" depart="24464">
        <ride from="-53655506#0" to="-104951462#0" lines="taxi" />
    </person>
    <person id="229" depart="24464">
        <ride from="1364062319#4" to="210983371" lines="taxi" />
    </person>
    <person id="230" depart="24467">
        <ride from="210983308#1" to="-53561473#2" lines="taxi" />
    </person>
    <person id="231" depart="24482">
        <ride from="-53561362#11" to="-210983283" lines="taxi" />
    </person>
    <person id="232" depart="24482">
        <ride from="53658196#0" to="371128535#1" lines="taxi" />
    </person>
    <person id="233" depart="24499">
        <ride from="-210983371" to="-371128539#0" lines="taxi" />
    </person>
    <person id="234" depart="24517">
        <ride from="371139410#0" to="53655506#2" lines="taxi" />
    </person>
    <person id="235" depart="24535">
        <ride from="-53655513#0" to="25016243#1" lines="taxi" />
    </person>
    <person id="236" depart="24541">
        <ride from="53655506#0" to="53561370#1" lines="taxi" />
    </person>
    <person id="237" depart="24566">
        <ride from="-371139410#1" to="-1213201223#7" lines="taxi" />
    </person>
    <person id="238" depart="24588">
        <ride from="57354813" to="-371139410#0" lines="taxi" />
    </person>
    <person id="239" depart="24608">
        <ride from="53655514#0" to="884011753#6" lines="taxi" />
    </person>
    <person id="240" depart="24615">
        <ride from="-103755414#1" to="53561378#0" lines="taxi" />
    </person>
    <person id="241" depart="24686">
        <ride from="53655502#0" to="371139406-AddedOffRampEdge" lines="taxi" />
    </person>
    <person id="242" depart="24699">
        <ride from="783087155" to="-53561394#2" lines="taxi" />
    </person>
    <person id="243" depart="24793">
        <ride from="813269878" to="-886367121#0" lines="taxi" />
    </person>
    <person id="244" depart="24804">
        <ride from="-53561353" to="165271537#2" lines="taxi" />
    </person>
    <person id="245" depart="24823">
        <ride from="843189950#1" to="221195033" lines="taxi" />
    </person>
    <person id="246" depart="24833">
        <ride from="210983358" to="-53561473#1" lines="taxi" />
    </person>
    <person id="247" depart="24840">
        <ride from="-53658195#2" to="-53561394#1" lines="taxi" />
    </person>
    <person id="248" depart="24843">
        <ride from="53658195#1" to="-1364062319#7" lines="taxi" />
    </person>
    <person id="249" depart="24850">
        <ride from="53655502#0" to="-1364062319#5" lines="taxi" />
    </person>
    <person id="250" depart="24896">
        <ride from="1364062319#5" to="1116432385#7" lines="taxi" />
    </person>
    <person id="251" depart="24921">
        <ride from="53655492#10" to="886367121#2" lines="taxi" />
    </person>
    <person id="252" depart="24929">
        <ride from="221195038#1" to="-371139407#1" lines="taxi" />
    </person>
    <person id="253" depart="24940">
        <ride from="221195033" to="53655553#0" lines="taxi" />
    </person>
    <person id="254" depart="24967">
        <ride from="25718014#1" to="-820509839" lines="taxi" />
    </person>
    <person id="255" depart="24969">
        <ride from="-53561367#2" to="-53655530#0" lines="taxi" />
    </person>
    <person id="256" depart="24988">
        <ride from="776323738" to="53655492#10" lines="taxi" />
    </person>
    <person id="257" depart="24990">