<?xml version='1.0' encoding='utf-8'?>
<routes xmlns:xsi="http://www.w3.org/2001/XMLSchema-instance" xsi:noNamespaceSchemaLocation="http://sumo.dlr.de/xsd/routes_file.xsd">
    <person id="0" depart="70">
        <ride from="103299427#1" to="53655496#1" lines="taxi" />
    </person>
    <person id="1" depart="454">
        <ride from="53655560#4" to="-53746020#1" lines="taxi" />
    </person>
    <person id="2" depart="1083">
        <ride from="53561441#1" to="53655496#1" lines="taxi" />
    </person>
    <person id="3" depart="1093">
        <ride from="53655547#5" to="-1078727591#0" lines="taxi" />
    </person>
    <person id="4" depart="1229">
        <ride from="53655496#1" to="-371128542#2" lines="taxi" />
    </person>
    <person id="5" depart="1251">
        <ride from="57354813" to="-371128542#2" lines="taxi" />
    </person>
    <person id="6" depart="1309">
        <ride from="154518276#1" to="-495024963#0" lines="taxi" />
    </person>
    <person id="7" depart="1317">
        <ride from="1279020165" to="-25717814#1" lines="taxi" />
    </person>
    <person id="8" depart="1372">
        <ride from="221195029#4" to="776816220" lines="taxi" />
    </person>
    <person id="9" depart="1456">
        <ride from="-210994252#1" to="154518276#1" lines="taxi" />
    </person>
    <person id="10" depart="1468">
        <ride from="-884011753#0" to="25721304" lines="taxi" />
    </person>
    <person id="11" depart="1531">
        <ride from="-884011753#0" to="1157697966" lines="taxi" />
    </person>
    <person id="12" depart="1850">
        <ride from="53561455#2" to="-25718014#1" lines="taxi" />
    </person>
    <person id="13" depart="2003">
        <ride from="-371139410#7" to="210983384" lines="taxi" />
    </person>
    <person id="14" depart="2024">
        <ride from="-53746020#1" to="53655496#1" lines="taxi" />
    </person>
    <person id="15" depart="2590">
        <ride from="57354813" to="-884054432#3" lines="taxi" />
    </person>
    <person id="16" depart="2696">
        <ride from="221195029#4" to="-371128542#2" lines="taxi" />
    </person>
    <person id="17" depart="2773">
        <ride from="53561439#7" to="541594086" lines="taxi" />
    </person>
    <person id="18" depart="2858">
        <ride from="765885882#0" to="776321009#0" lines="taxi" />
    </person>
    <person id="19" depart="3086">
        <ride from="-53561416#2" to="102562074#4" lines="taxi" />
    </person>
    <person id="20" depart="3344">
        <ride from="1159883629" to="-53655560#16" lines="taxi" />
    </person>
    <person id="21" depart="3358">
        <ride from="154518276#1" to="-495024963#0" lines="taxi" />
    </person>
    <person id="22" depart="3529">
        <ride from="221195029#4" to="103755425#3" lines="taxi" />
    </person>
    <person id="23" depart="3567">
        <ride from="53655513#0" to="850142395#0" lines="taxi" />
    </person>
    <person id="24" depart="4113">
        <ride from="-371139410#7" to="495024963#10" lines="taxi" />
    </person>
    <person id="25" depart="4762">
        <ride from="776323740" to="1079659299#0" lines="taxi" />
    </person>
    <person id="26" depart="5290">
        <ride from="-53561416#2" to="-495024963#0" lines="taxi" />
    </person>
    <person id="27" depart="5355">
        <ride from="-25718014#1" to="154984257#0" lines="taxi" />
    </person>
    <person id="28" depart="5371">
        <ride from="-53655528#2" to="53655547#5" lines="taxi" />
    </person>
    <person id="29" depart="5737">
        <ride from="-53561390#0" to="1211159967#0" lines="taxi" />
    </person>
    <person id="30" depart="5783">
        <ride from="-53655560#16" to="765885882#0" lines="taxi" />
    </person>
    <person id="31" depart="6004">
        <ride from="210983384" to="-53561448#9" lines="taxi" />
    </person>
    <person id="32" depart="6017">
        <ride from="-884054432#3" to="-272078615#3" lines="taxi" />
    </person>
    <person id="33" depart="6340">
        <ride from="-53561448#9" to="53561357#3" lines="taxi" />
    </person>
    <person id="34" depart="7653">
        <ride from="25721304" to="53561439#7" lines="taxi" />
    </person>
    <person id="35" depart="7996">
        <ride from="-53655554" to="1079659299#0" lines="taxi" />
    </person>
    <person id="36" depart="8186">
        <ride from="25720691#2" to="103299427#1" lines="taxi" />
    </person>
    <person id="37" depart="8618">
        <ride from="210994239#0" to="53561351#5" lines="taxi" />
    </person>
    <person id="38" depart="8627">
        <ride from="-53658194" to="-53561416#2" lines="taxi" />
    </person>
    <person id="39" depart="8779">
        <ride from="53561441#1" to="-53655560#16" lines="taxi" />
    </person>
    <person id="40" depart="9055">
        <ride from="776321009#0" to="57354813" lines="taxi" />
    </person>
    <person id="41" depart="9137">
        <ride from="541594086" to="53561455#2" lines="taxi" />
    </person>
    <person id="42" depart="9140">
        <ride from="-53655560#16" to="53655560#4" lines="taxi" />
    </person>
    <person id="43" depart="9572">
        <ride from="53655560#4" to="-371139410#7" lines="taxi" />
    </person>
    <person id="44" depart="9690">
        <ride from="371130049#2" to="-53655527#0" lines="taxi" />
    </person>
    <person id="45" depart="10210">
        <ride from="53561439#7" to="25721304" lines="taxi" />
    </person>
    <person id="46" depart="10554">
        <ride from="-53561361#0" to="210994239#0" lines="taxi" />
    </person>
    <person id="47" depart="11006">
        <ride from="-371139410#1" to="-25717422" lines="taxi" />
    </person>
    <person id="48" depart="11292">
        <ride from="103299427#1" to="-53655554" lines="taxi" />
    </person>
    <person id="49" depart="11924">
        <ride from="886367121#7" to="210983384" lines="taxi" />
    </person>
    <person id="50" depart="12471">
        <ride from="-25718014#1" to="-211071518#0" lines="taxi" />
    </person>
    <person id="51" depart="12505">
        <ride from="-211071518#0" to="-371139410#1" lines="taxi" />
    </person>
    <person id="52" depart="12710">
        <ride from="-102566012#4" to="-371128542#2" lines="taxi" />
    </person>
    <person id="53" depart="12755">
        <ride from="-210994252#1" to="-210983363" lines="taxi" />
    </person>
    <person id="54" depart="13004">
        <ride from="541594086" to="-53655549#1" lines="taxi" />
    </person>
    <person id="55" depart="13154">
        <ride from="-53561433" to="221195029#4" lines="taxi" />
    </person>
    <person id="56" depart="13716">
        <ride from="53655515#2" to="-884054432#3" lines="taxi" />
    </person>
    <person id="57" depart="13812">
        <ride from="-210983363" to="1157697966" lines="taxi" />
    </person>
    <person id="58" depart="14157">
        <ride from="25720693" to="53561357#3" lines="taxi" />
    </person>
    <person id="59" depart="14283">
        <ride from="1159883629" to="-371128542#2" lines="taxi" />
    </person>
    <person id="60" depart="14450">
        <ride from="-53655560#16" to="53655560#4" lines="taxi" />
    </person>
    <person id="61" depart="14466">
        <ride from="1279020165" to="-884011753#0" lines="taxi" />
    </person>
    <person id="62" depart="14617">
        <ride from="53655547#5" to="-371139410#1" lines="taxi" />
    </person>
    <person id="63" depart="14725">
        <ride from="53655515#2" to="103755425#3" lines="taxi" />
    </person>
    <person id="64" depart="14788">
        <ride from="-25717814#1" to="-884011753#0" lines="taxi" />
    </person>
    <person id="65" depart="15080">
        <ride from="154518276#1" to="1079659299#0" lines="taxi" />
    </person>
    <person id="66" depart="15159">
        <ride from="-272078615#3" to="850142395#0" lines="taxi" />
    </person>
    <person id="67" depart="15289">
        <ride from="-25717814#1" to="-884011753#0" lines="taxi" />
    </person>
    <person id="68" depart="15466">
        <ride from="53655547#5" to="344412436#0" lines="taxi" />
    </person>
    <person id="69" depart="16092">
        <ride from="53655515#2" to="103299427#1" lines="taxi" />
    </person>
    <person id="70" depart="16135">
        <ride from="371130049#2" to="776323740" lines="taxi" />
    </person>
    <person id="71" depart="16314">
        <ride from="-53655549#1" to="1279020165" lines="taxi" />
    </person>
    <person id="72" depart="16458">
        <ride from="53655492#10" to="-495024963#0" lines="taxi" />
    </person>
    <person id="73" depart="16470">
        <ride from="53655547#5" to="53655513#0" lines="taxi" />
    </person>
    <person id="74" depart="16602">
        <ride from="154518276#1" to="-53561361#0" lines="taxi" />
    </person>
    <person id="75" depart="17109">
        <ride from="371130049#2" to="776816220" lines="taxi" />
    </person>
    <person id="76" depart="17434">
        <ride from="53561353" to="53655547#5" lines="taxi" />
    </person>
    <person id="77" depart="17484">
        <ride from="-102566012#4" to="-53655504#1" lines="taxi" />
    </person>
    <person id="78" depart="17751">
        <ride from="1279020165" to="25721304" lines="taxi" />
    </person>
    <person id="79" depart="18306">
        <ride from="776816220" to="103299427#1" lines="taxi" />
    </person>
    <person id="80" depart="18389">
        <ride from="-25718014#1" to="776816220" lines="taxi" />
    </person>
    <person id="81" depart="18475">
        <ride from="-371139410#7" to="25720691#2" lines="taxi" />
    </person>
    <person id="82" depart="18600">
        <ride from="-53561433" to="-53655504#1" lines="taxi" />
    </person>
    <person id="83" depart="18659">
        <ride from="-25717422" to="-495024963#0" lines="taxi" />
    </person>
    <person id="84" depart="18676">
        <ride from="-25717814#1" to="-53655515#0" lines="taxi" />
    </person>
    <person id="85" depart="18803">
        <ride from="1163556834#1" to="53655496#1" lines="taxi" />
    </person>
    <person id="86" depart="18930">
        <ride from="1279020165" to="-53655560#16" lines="taxi" />
    </person>
    <person id="87" depart="18980">
        <ride from="1211159967#0" to="-884011753#0" lines="taxi" />
    </person>
    <person id="88" depart="19432">
        <ride from="53561351#5" to="-53561372#0" lines="taxi" />
    </person>
    <person id="89" depart="19839">
        <ride from="776816215#1" to="1336792636" lines="taxi" />
    </person>
    <person id="90" depart="19859">
        <ride from="53655513#0" to="-53561448#9" lines="taxi" />
    </person>
    <person id="91" depart="20013">
        <ride from="53561353" to="1157697966" lines="taxi" />
    </person>
    <person id="92" depart="20924">
        <ride from="776321009#0" to="53655547#5" lines="taxi" />
    </person>
    <person id="93" depart="20930">
        <ride from="-884011753#0" to="-53655504#1" lines="taxi" />
    </person>
    <person id="94" depart="20975">
        <ride from="-1078727591#0" to="-53561372#0" lines="taxi" />
    </person>
    <person id="95" depart="21124">
        <ride from="53655515#2" to="-53561390#0" lines="taxi" />
    </person>
    <person id="96" depart="21374">
        <ride from="541594086" to="-53658194" lines="taxi" />
    </person>
    <person id="97" depart="21516">
        <ride from="53655513#0" to="102562074#4" lines="taxi" />
    </person>
    <person id="98" depart="21638">
        <ride from="-53561390#0" to="103755425#3" lines="taxi" />
    </person>
    <person id="99" depart="21683">
        <ride from="1163556834#1" to="-53655560#16" lines="taxi" />
    </person>
    <person id="100" depart="21687">
        <ride from="-25717422" to="850142395#0" lines="taxi" />
    </person>
    <person id="101" depart="21748">
        <ride from="25721304" to="-371139410#1" lines="taxi" />
    </person>
    <person id="102" depart="21760">
        <ride from="-884011753#0" to="776816215#1" lines="taxi" />
    </person>
    <person id="103" depart="21802">
        <ride from="-272078615#3" to="1336792636" lines="taxi" />
    </person>
    <person id="104" depart="21805">
        <ride from="-53655560#16" to="-53561433" lines="taxi" />
    </person>
    <person id="105" depart="21820">
        <ride from="53561439#7" to="-211071518#0" lines="taxi" />
    </person>
    <person id="106" depart="21856">
        <ride from="-53655528#2" to="25721304" lines="taxi" />
    </person>
    <person id="107" depart="21864">
        <ride from="-884054432#3" to="53561441#1" lines="taxi" />
    </person>
    <person id="108" depart="21868">
        <ride from="1411384588" to="344412436#0" lines="taxi" />
    </person>
    <person id="109" depart="21877">
        <ride from="1211159967#0" to="776321009#0" lines="taxi" />
    </person>
    <person id="110" depart="21891">
        <ride from="25720693" to="776816215#1" lines="taxi" />
    </person>
    <person id="111" depart="21912">
        <ride from="776816220" to="-884011753#0" lines="taxi" />
    </person>
    <person id="112" depart="21953">
        <ride from="1157697966" to="1159883629" lines="taxi" />
    </person>
    <person id="113" depart="21976">
        <ride from="-25718014#1" to="-884054432#3" lines="taxi" />
    </person>
    <person id="114" depart="21988">
        <ride from="-25718014#1" to="-884054432#3" lines="taxi" />
    </person>
    <person id="115" depart="21989">
        <ride from="210994239#0" to="776323740" lines="taxi" />
    </person>
    <person id="116" depart="21996">
        <ride from="-371139410#1" to="1336792636" lines="taxi" />
    </person>
    <person id="117" depart="21999">
        <ride from="-53655549#1" to="-211071518#0" lines="taxi" />
    </person>
    <person id="118" depart="22035">
        <ride from="-53655515#0" to="53561441#1" lines="taxi" />
    </person>
    <person id="119" depart="22052">
        <ride from="210983384" to="-211071518#0" lines="taxi" />
    </person>
    <person id="120" depart="22057">
        <ride from="165271537#1" to="886367121#7" lines="taxi" />
    </person>
    <person id="121" depart="22071">
        <ride from="53561439#7" to="221195029#4" lines="taxi" />
    </person>
    <person id="122" depart="22079">
        <ride from="53655547#5" to="154518276#1" lines="taxi" />
    </person>
    <person id="123" depart="22090">
        <ride from="-210994252#1" to="1211159967#0" lines="taxi" />
    </person>
    <person id="124" depart="22097">
        <ride from="-25717814#1" to="1163556834#1" lines="taxi" />
    </person>
    <person id="125" depart="22142">
        <ride from="-884054432#3" to="-53561372#0" lines="taxi" />
    </person>
    <person id="126" depart="22146">
        <ride from="1411384588" to="-884054432#3" lines="taxi" />
    </person>
    <person id="127" depart="22166">
        <ride from="1411384588" to="-25718014#1" lines="taxi" />
    </person>
    <person id="128" depart="22166">
        <ride from="344412436#0" to="53655515#2" lines="taxi" />
    </person>
    <person id="129" depart="22207">
        <ride from="53655492#10" to="-272078615#3" lines="taxi" />
    </person>
    <person id="130" depart="22214">
        <ride from="1157697966" to="-272078615#3" lines="taxi" />
    </person>
    <person id="131" depart="22244">
        <ride from="1211159967#0" to="776816220" lines="taxi" />
    </person>
    <person id="132" depart="22278">
        <ride from="53561465#1" to="776816220" lines="taxi" />
    </person>
    <person id="133" depart="22294">
        <ride from="25721304" to="1411384588" lines="taxi" />
    </person>
    <person id="134" depart="22341">
        <ride from="53655560#4" to="-53655554" lines="taxi" />
    </person>
    <person id="135" depart="22345">
        <ride from="154518276#1" to="-1078727591#0" lines="taxi" />
    </person>
    <person id="136" depart="22391">
        <ride from="-53655560#16" to="53655496#1" lines="taxi" />
    </person>
    <person id="137" depart="22394">
        <ride from="-371128542#2" to="1411384588" lines="taxi" />
    </person>
    <person id="138" depart="22398">
        <ride from="154984257#0" to="776816215#1" lines="taxi" />
    </person>
    <person id="139" depart="22400">
        <ride from="-25717422" to="-53561448#9" lines="taxi" />
    </person>
    <person id="140" depart="22408">
        <ride from="103299427#1" to="154984257#0" lines="taxi" />
    </person>
    <person id="141" depart="22410">
        <ride from="25720894" to="210983384" lines="taxi" />
    </person>
    <person id="142" depart="22433">
        <ride from="-371139410#7" to="53655496#1" lines="taxi" />
    </person>
    <person id="143" depart="22437">
        <ride from="1157697966" to="-884011753#0" lines="taxi" />
    </person>
    <person id="144" depart="22449">
        <ride from="1211159967#0" to="154984257#0" lines="taxi" />
    </person>
    <person id="145" depart="22452">
        <ride from="776816220" to="-53655527#0" lines="taxi" />
    </person>
    <person id="146" depart="22465">
        <ride from="1159883629" to="1279020165" lines="taxi" />
    </person>
    <person id="147" depart="22470">
        <ride from="-53561433" to="-884011753#0" lines="taxi" />
    </person>
    <person id="148" depart="22520">
        <ride from="-884054432#3" to="-53561372#0" lines="taxi" />
    </person>
    <person id="149" depart="22525">
        <ride from="25721304" to="53561465#1" lines="taxi" />
    </person>
    <person id="150" depart="22575">
        <ride from="25720693" to="-1078727591#0" lines="taxi" />
    </person>
    <person id="151" depart="22585">
        <ride from="-371128542#2" to="-371139410#7" lines="taxi" />
    </person>
    <person id="152" depart="22609">
        <ride from="-884011753#0" to="1279020165" lines="taxi" />
    </person>
    <person id="153" depart="22673">
        <ride from="210994239#0" to="53655560#4" lines="taxi" />
    </person>
    <person id="154" depart="22708">
        <ride from="-1078727591#0" to="776321009#0" lines="taxi" />
    </person>
    <person id="155" depart="22710">
        <ride from="102562074#4" to="-53655549#1" lines="taxi" />
    </person>
    <person id="156" depart="22718">
        <ride from="154518276#1" to="-371128542#2" lines="taxi" />
    </person>
    <person id="157" depart="22771">
        <ride from="410537375#4" to="154984257#0" lines="taxi" />
    </person>
    <person id="158" depart="22808">
        <ride from="-53561433" to="53655560#4" lines="taxi" />
    </person>
    <person id="159" depart="22827">
        <ride from="-25718014#1" to="53561441#1" lines="taxi" />
    </person>
    <person id="160" depart="22840">
        <ride from="-53658194" to="-53561433" lines="taxi" />
    </person>
    <person id="161" depart="22844">
        <ride from="-210983305" to="1411384588" lines="taxi" />
    </person>
    <person id="162" depart="22975">
        <ride from="344412436#0" to="221195029#4" lines="taxi" />
    </person>
    <person id="163" depart="22993">
        <ride from="-371128542#2" to="1279020165" lines="taxi" />
    </person>
    <person id="164" depart="23086">
        <ride from="1157697966" to="53561441#1" lines="taxi" />
    </person>
    <person id="165" depart="23087">
        <ride from="210983384" to="25720894" lines="taxi" />
    </person>
    <person id="166" depart="23132">
        <ride from="-210983363" to="-371139410#7" lines="taxi" />
    </person>
    <person id="167" depart="23142">
        <ride from="776816220" to="495024963#10" lines="taxi" />
    </person>
    <person id="168" depart="23211">
        <ride from="57354813" to="1163556834#1" lines="taxi" />
    </person>
    <person id="169" depart="23229">
        <ride from="-25717814#1" to="53561353" lines="taxi" />
    </person>
    <person id="170" depart="23279">
        <ride from="1157697966" to="850142395#0" lines="taxi" />
    </person>
    <person id="171" depart="23291">
        <ride from="25721304" to="53561353" lines="taxi" />
    </person>
    <person id="172" depart="23300">
        <ride from="886367121#7" to="-25717422" lines="taxi" />
    </person>
    <person id="173" depart="23304">
        <ride from="53655547#5" to="1163556834#1" lines="taxi" />
    </person>
    <person id="174" depart="23319">
        <ride from="-495024963#0" to="25720691#2" lines="taxi" />
    </person>
    <person id="175" depart="23345">
        <ride from="495024963#10" to="541594086" lines="taxi" />
    </person>
    <person id="176" depart="23397">
        <ride from="1163556834#1" to="-210983363" lines="taxi" />
    </person>
    <person id="177" depart="23456">
        <ride from="886367121#7" to="53561353" lines="taxi" />
    </person>
    <person id="178" depart="23474">
        <ride from="-53561433" to="-272078615#3" lines="taxi" />
    </person>
    <person id="179" depart="23491">
        <ride from="850142395#0" to="221195029#4" lines="taxi" />
    </person>
    <person id="180" depart="23497">
        <ride from="-53561390#0" to="53655560#4" lines="taxi" />
    </person>
    <person id="181" depart="23513">
        <ride from="53561465#1" to="53561357#3" lines="taxi" />
    </person>
    <person id="182" depart="23529">
        <ride from="103299427#1" to="-210994252#1" lines="taxi" />
    </person>
    <person id="183" depart="23547">
        <ride from="-53655560#16" to="154984257#0" lines="taxi" />
    </person>
    <person id="184" depart="23548">
        <ride from="1211159967#0" to="154984257#0" lines="taxi" />
    </person>
    <person id="185" depart="23553">
        <ride from="886367121#7" to="-53655504#1" lines="taxi" />
    </person>
    <person id="186" depart="23560">
        <ride from="776321009#0" to="410537375#4" lines="taxi" />
    </person>
    <person id="187" depart="23563">
        <ride from="103299427#1" to="25720691#2" lines="taxi" />
    </person>
    <person id="188" depart="23755">
        <ride from="53561353" to="154984257#0" lines="taxi" />
    </person>
    <person id="189" depart="23834">
        <ride from="344412436#0" to="25720691#2" lines="taxi" />
    </person>
    <person id="190" depart="23870">
        <ride from="776321009#0" to="850142395#0" lines="taxi" />
    </person>
    <person id="191" depart="23875">
        <ride from="154518276#1" to="-53655554" lines="taxi" />
    </person>
    <person id="192" depart="23898">
        <ride from="53561441#1" to="-53658194" lines="taxi" />
    </person>
    <person id="193" depart="23937">
        <ride from="53561441#1" to="1079659299#0" lines="taxi" />
    </person>
    <person id="194" depart="23963">
        <ride from="53655509#1" to="53561357#3" lines="taxi" />
    </person>
    <person id="195" depart="23982">
        <ride from="776816215#1" to="-25717814#1" lines="taxi" />
    </person>
    <person id="196" depart="23993">
        <ride from="850142395#0" to="-211071518#0" lines="taxi" />
    </person>
    <person id="197" depart="23993">
        <ride from="-53655504#1" to="-272078615#3" lines="taxi" />
    </person>
    <person id="198" depart="23993">
        <ride from="-884054432#3" to="1279020165" lines="taxi" />
    </person>
    <person id="199" depart="24022">
        <ride from="-25718014#1" to="-211071518#0" lines="taxi" />
    </person>
    <person id="200" depart="24026">
        <ride from="-53655549#1" to="-53561429#1" lines="taxi" />
    </person>
    <person id="201" depart="24027">
        <ride from="-53561361#0" to="53561439#7" lines="taxi" />
    </person>
    <person id="202" depart="24043">
        <ride from="371130049#2" to="57354813" lines="taxi" />
    </person>
    <person id="203" depart="24047">
        <ride from="-53561416#2" to="-53561448#9" lines="taxi" />
    </person>
    <person id="204" depart="24072">
        <ride from="765885882#0" to="776816215#1" lines="taxi" />
    </person>
    <person id="205" depart="24136">
        <ride from="53655515#2" to="-53561416#2" lines="taxi" />
    </person>
    <person id="206" depart="24162">
        <ride from="765885882#0" to="165271537#1" lines="taxi" />
    </person>
    <person id="207" depart="24176">
        <ride from="53561439#7" to="-53561361#0" lines="taxi" />
    </person>
    <person id="208" depart="24191">
        <ride from="53655560#4" to="-272078615#3" lines="taxi" />
    </person>
    <person id="209" depart="24198">
        <ride from="344412436#0" to="-53655527#0" lines="taxi" />
    </person>
    <person id="210" depart="24213">
        <ride from="-53561429#1" to="1163556834#1" lines="taxi" />
    </person>
    <person id="211" depart="24237">
        <ride from="25721304" to="765885882#0" lines="taxi" />
    </person>
    <person id="212" depart="24276">
        <ride from="495024963#10" to="53561351#5" lines="taxi" />
    </person>
    <person id="213" depart="24326">
        <ride from="-53561361#0" to="25721304" lines="taxi" />
    </person>
    <person id="214" depart="24336">
        <ride from="-53655528#2" to="1159883629" lines="taxi" />
    </person>
    <person id="215" depart="24351">
        <ride from="410537375#4" to="-102566012#4" lines="taxi" />
    </person>
    <person id="216" depart="24358">
        <ride from="-1078727591#0" to="53561439#7" lines="taxi" />
    </person>
    <person id="217" depart="24375">
        <ride from="53561441#1" to="1159883629" lines="taxi" />
    </person>
    <person id="218" depart="24399">
        <ride from="-884054432#3" to="1157697966" lines="taxi" />
    </person>
    <person id="219" depart="24456">
        <ride from="-53561372#0" to="53561357#3" lines="taxi" />
    </person>
    <person id="220" depart="24456">
        <ride from="-495024963#0" to="541594086" lines="taxi" />
    </person>
    <person id="221" depart="24458">
        <ride from="-371128542#2" to="-53655504#1" lines="taxi" />
    </person>
    <person id="222" depart="24464">
        <ride from="154984257#0" to="-25718014#1" lines="taxi" />
    </person>
    <person id="223" depart="24481">
        <ride from="-371128542#2" to="410537375#4" lines="taxi" />
    </person>
    <person id="224" depart="24484">
        <ride from="-53561390#0" to="1159883629" lines="taxi" />
    </person>
    <person id="225" depart="24535">
        <ride from="1279020165" to="53655560#4" lines="taxi" />
    </person>
    <person id="226" depart="24548">
        <ride from="53561455#2" to="-210983363" lines="taxi" />
    </person>
    <person id="227" depart="24551">
        <ride from="210994239#0" to="495024963#10" lines="taxi" />
    </person>
    <person id="228" depart="24563">
        <ride from="-25717422" to="541594086" lines="taxi" />
    </person>
    <person id="229" depart="24570">
        <ride from="776321009#0" to="53655560#4" lines="taxi" />
    </person>
    <person id="230" depart="24595">
        <ride from="-53561429#1" to="-53561390#0" lines="taxi" />
    </person>
    <person id="231" depart="24612">
        <ride from="53561351#5" to="-884054432#3" lines="taxi" />
    </person>
    <person id="232" depart="24656">
        <ride from="-371139410#7" to="-53655549#1" lines="taxi" />
    </person>
    <person id="233" depart="24665">
        <ride from="886367121#7" to="1411384588" lines="taxi" />
    </person>
    <person id="234" depart="24669">
        <ride from="776816220" to="-53561433" lines="taxi" />
    </person>
    <person id="235" depart="24671">
        <ride from="53561441#1" to="495024963#10" lines="taxi" />
    </person>
    <person id="236" depart="24679">
        <ride from="-53561448#9" to="1079659299#0" lines="taxi" />
    </person>
    <person id="237" depart="24755">
        <ride from="-53561390#0" to="53561465#1" lines="taxi" />
    </person>
    <person id="238" depart="24799">
        <ride from="210983384" to="-53655515#0" lines="taxi" />
    </person>
    <person id="239" depart="24831">
        <ride from="371130049#2" to="102562074#4" lines="taxi" />
    </person>
    <person id="240" depart="24852">
        <ride from="-25717422" to="-884054432#3" lines="taxi" />
    </person>
    <person id="241" depart="24864">
        <ride from="53655515#2" to="-53561390#0" lines="taxi" />
    </person>
    <person id="242" depart="24896">
        <ride from="-53746020#1" to="-53658194" lines="taxi" />
    </person>
    <person id="243" depart="24912">
        <ride from="-53746020#1" to="-53561372#0" lines="taxi" />
    </person>
    <person id="244" depart="24952">
        <ride from="53561351#5" to="-210994252#1" lines="taxi" />
    </person>
    <person id="245" depart="24995">
        <ride from="1079659299#0" to="-884054432#3" lines="taxi" />
    </person>
    <person id="246" depart="25067">
        <ride from="-495024963#0" to="-53655504#1" lines="taxi" />
    </person>
    <person id="247" depart="25072">
        <ride from="53561439#7" to="53655496#1" lines="taxi" />
    </person>
    <person id="248" depart="25081">
        <ride from="-884054432#3" to="-371139410#1" lines="taxi" />
    </person>
    <person id="249" depart="25097">
        <ride from="-53655515#0" to="103755425#3" lines="taxi" />
    </person>
    <person id="250" depart="25135">
        <ride from="53561353" to="1336792636" lines="taxi" />
    </person>
    <person id="251" depart="25144">
        <ride from="-102566012#4" to="53655492#10" lines="taxi" />
    </person>
    <person id="252" depart="25145">
        <ride from="-25718014#1" to="1157697966" lines="taxi" />
    </person>
    <person id="253" depart="25161">
        <ride from="541594086" to="25720691#2" lines="taxi" />
    </person>
    <person id="254" depart="25162">
        <ride from="53561465#1" to="1157697966" lines="taxi" />
    </person>
    <person id="255" depart="25200">
        <ride from="776321009#0" to="-53561429#1" lines="taxi" />
    </person>
    <person id="256" depart="25245">
        <ride from="221195029#4" to="1079659299#0" lines="taxi" />
    </person>
    <person id="257" depart="25260">
        <ride from="53561353" to="25720894" lines="taxi" />